5
Coordinates from ORCA-job calc E  -6.728545525246
  C       4.291800      3.658800      0.000000
  H       4.648500      2.650000      0.000000
  H       4.648500      4.163200      0.870700
  H       4.648500      4.163200     -0.879700
  H       3.221800      3.658800      0.000000
5
Coordinates from ORCA-job calc E  -6.733567466228
  C       4.291673      3.658800     -0.000815
  H       4.663846      2.607532     -0.001175
  H       4.664624      4.185982      0.907738
  H       4.662511      4.182689     -0.913751
  H       3.176446      3.658997     -0.000997
5
Coordinates from ORCA-job calc E  -6.733604839636
  C       4.291587      3.658770     -0.001161
  H       4.662743      2.610582     -0.001188
  H       4.663623      4.184584      0.904990
  H       4.661516      4.181133     -0.910727
  H       3.179631      3.658930     -0.000914
5
Coordinates from ORCA-job calc E  -6.733605331016
  C       4.291527      3.658743     -0.001377
  H       4.662582      2.610882     -0.001085
  H       4.663485      4.184409      0.904593
  H       4.661567      4.181111     -0.910385
  H       3.179938      3.658854     -0.000745
