10
energy: -16.134439224511 xtb: 6.5.1 (579679a)
C           -0.72959447801628        0.13991650019123        0.16632352940943
C            0.57939276430893       -0.05793798954410        0.09785923891681
Cl           1.40044402982972       -0.71255586665558       -2.52942487220586
H           -0.70881555981841        0.51994553342723        2.02887173420309
H           -1.42151662222144       -0.67880749707661        0.30177598877110
H           -1.17197381693559        1.09811000345581       -0.06545481647662
H            1.01705137186309       -1.02661882286175        0.25771242740971
H            1.26556316558215        0.74343177666485       -0.10791969729172
O           -1.05461000819305        0.75626627216823        2.91844586487233
H           -1.99566084639795        0.89420009023126        2.79472060238799
