10
energy: -16.102994754829 xtb: 6.5.1 (579679a)
C           -0.70637438086759        0.17262760721243        0.33274280182974
C            0.66341998843492       -0.09380322960093       -0.02190071662114
Cl           0.93285614985844       -0.54317438806383       -2.00868470134795
H           -0.75988374541906        0.40510594803081        1.41897230293183
H           -1.35842309961246       -0.68636214780940        0.17450073038809
H           -1.11501364678718        1.04130165113052       -0.18353795436880
H            1.09141042706838       -0.99646697141723        0.39572992998658
H            1.33775101467532        0.75153227235961        0.03379214359808
O           -0.97892359810673        0.73164394349296        2.84233599007290
H           -1.92653910924296        0.89354531466561        2.87895947352709
