5
Coordinates from ORCA-job calc E  -6.552992723115
  C       4.085537      3.697132     -0.313697
  H       4.745377      3.196680      0.471987
  H       4.997981      3.622905      1.129321
  H       4.614667      4.171161     -1.140894
  H       3.015537      3.606122     -0.155716
5
Coordinates from ORCA-job calc E  -6.560104373037
  C       4.103431      3.502320     -0.397884
  H       4.744553      3.167909      0.453377
  H       4.934692      3.702874      1.070422
  H       4.591108      4.225738     -1.029853
  H       3.085317      3.695159     -0.105064
5
Coordinates from ORCA-job calc E  -6.561078153401
  C       4.100944      3.515906     -0.394263
  H       4.753421      3.163226      0.465333
  H       4.950521      3.694363      1.091092
  H       4.593529      4.230314     -1.056217
  H       3.060685      3.690192     -0.114944
5
Coordinates from ORCA-job calc E  -6.560214550905
  C       4.104256      3.524967     -0.383903
  H       4.764929      3.177647      0.492417
  H       4.942611      3.672713      1.065636
  H       4.593066      4.230413     -1.063959
  H       3.054237      3.688260     -0.119190
5
Coordinates from ORCA-job calc E  -6.561212188532
  C       4.100752      3.520991     -0.391916
  H       4.759688      3.164169      0.476105
  H       4.954165      3.687126      1.092751
  H       4.587190      4.230347     -1.062609
  H       3.057305      3.691367     -0.123330
5
Coordinates from ORCA-job calc E  -6.561222011247
  C       4.101160      3.518708     -0.392557
  H       4.760549      3.163889      0.477421
  H       4.953684      3.687232      1.092059
  H       4.585210      4.231045     -1.061679
  H       3.058496      3.693125     -0.124244
5
Coordinates from ORCA-job calc E  -6.561228232977
  C       4.101708      3.515228     -0.393704
  H       4.762301      3.163085      0.479840
  H       4.953539      3.687315      1.091974
  H       4.581952      4.232399     -1.061008
  H       3.059600      3.695974     -0.126102
5
Coordinates from ORCA-job calc E  -6.561228377424
  C       4.101685      3.514925     -0.393927
  H       4.762423      3.162964      0.479963
  H       4.953559      3.687409      1.092079
  H       4.581868      4.232554     -1.061003
  H       3.059564      3.696147     -0.126112
5
Coordinates from ORCA-job calc E  -6.560389354725
  C       4.100733      3.515549     -0.395120
  H       4.761167      3.167826      0.480707
  H       4.959034      3.683140      1.098544
  H       4.580235      4.231946     -1.064012
  H       3.057931      3.695539     -0.129120
5
Coordinates from ORCA-job calc E  -6.560401753584
  C       4.100416      3.513733     -0.396686
  H       4.761731      3.168101      0.481782
  H       4.957886      3.683374      1.096823
  H       4.580450      4.232517     -1.062768
  H       3.058616      3.696274     -0.128151
5
Coordinates from ORCA-job calc E  -6.560427822267
  C       4.098335      3.507597     -0.403623
  H       4.764996      3.167847      0.486951
  H       4.955892      3.684127      1.094049
  H       4.580159      4.235094     -1.060093
  H       3.059718      3.699335     -0.126284
5
Coordinates from ORCA-job calc E  -6.560430286825
  C       4.097613      3.506355     -0.405509
  H       4.766232      3.167463      0.488747
  H       4.956086      3.684123      1.094360
  H       4.579504      4.235803     -1.060017
  H       3.059664      3.700255     -0.126580
5
Coordinates from ORCA-job calc E  -6.560430460576
  C       4.097469      3.506133     -0.405864
  H       4.766591      3.167322      0.489252
  H       4.956265      3.684057      1.094600
  H       4.579166      4.235967     -1.060119
  H       3.059609      3.700521     -0.126869
5
Coordinates from ORCA-job calc E  -6.559682908492
  C       4.096556      3.506719     -0.407015
  H       4.765329      3.172148      0.489966
  H       4.961680      3.679800      1.100974
  H       4.577546      4.235390     -1.063088
  H       3.057989      3.699943     -0.129838
5
Coordinates from ORCA-job calc E  -6.559693055150
  C       4.096312      3.505090     -0.408344
  H       4.765883      3.172416      0.491023
  H       4.960705      3.679934      1.099458
  H       4.577535      4.235882     -1.061980
  H       3.058665      3.700678     -0.129157
5
Coordinates from ORCA-job calc E  -6.559718533386
  C       4.094356      3.498831     -0.415107
  H       4.769355      3.172209      0.496559
  H       4.958946      3.680450      1.096869
  H       4.576483      4.238442     -1.059340
  H       3.059959      3.704068     -0.127981
5
Coordinates from ORCA-job calc E  -6.559723133759
  C       4.093255      3.496760     -0.418087
  H       4.771190      3.171683      0.499244
  H       4.959161      3.680506      1.097251
  H       4.575543      4.239548     -1.059096
  H       3.059951      3.705503     -0.128312
5
Coordinates from ORCA-job calc E  -6.559723572953
  C       4.092892      3.496403     -0.418886
  H       4.771815      3.171456      0.500129
  H       4.959462      3.680417      1.097697
  H       4.575143      4.239843     -1.059293
  H       3.059788      3.705880     -0.128647
5
Coordinates from ORCA-job calc E  -6.559723572680
  C       4.092857      3.496400     -0.418947
  H       4.771865      3.171438      0.500201
  H       4.959496      3.680404      1.097747
  H       4.575109      4.239857     -1.059319
  H       3.059773      3.705901     -0.128682
5
Coordinates from ORCA-job calc E  -6.559069934176
  C       4.091982      3.496948     -0.420057
  H       4.770597      3.176218      0.500879
  H       4.964851      3.676160      1.104031
  H       4.573503      4.239315     -1.062245
  H       3.058167      3.705359     -0.131608
5
Coordinates from ORCA-job calc E  -6.559078879658
  C       4.091692      3.495538     -0.421340
  H       4.771116      3.176485      0.501876
  H       4.964017      3.676252      1.102729
  H       4.573515      4.239738     -1.061274
  H       3.058760      3.705987     -0.130992
5
Coordinates from ORCA-job calc E  -6.559107069261
  C       4.089224      3.489123     -0.429044
  H       4.774982      3.176450      0.508149
  H       4.962322      3.676602      1.100182
  H       4.572483      4.242373     -1.058566
  H       3.060088      3.709452     -0.129722
5
Coordinates from ORCA-job calc E  -6.559114816187
  C       4.087529      3.486335     -0.433402
  H       4.777613      3.175880      0.512105
  H       4.962645      3.676543      1.100674
  H       4.571219      4.243858     -1.058221
  H       3.060093      3.711384     -0.130156
5
Coordinates from ORCA-job calc E  -6.559116226516
  C       4.086727      3.485499     -0.435187
  H       4.778935      3.175481      0.514030
  H       4.963221      3.676345      1.101493
  H       4.570400      4.244478     -1.058531
  H       3.059817      3.712196     -0.130804
5
Coordinates from ORCA-job calc E  -6.559116258225
  C       4.086604      3.485402     -0.435440
  H       4.779149      3.175413      0.514339
  H       4.963337      3.676298      1.101652
  H       4.570239      4.244564     -1.058602
  H       3.059770      3.712323     -0.130949
5
Coordinates from ORCA-job calc E  -6.558567321862
  C       4.085770      3.485903     -0.436510
  H       4.777872      3.180131      0.514968
  H       4.968628      3.672077      1.107845
  H       4.568649      4.244065     -1.061478
  H       3.058180      3.711824     -0.133824
5
Coordinates from ORCA-job calc E  -6.558574812425
  C       4.085464      3.484699     -0.437699
  H       4.778379      3.180369      0.515929
  H       4.967982      3.672114      1.106813
  H       4.568589      4.244430     -1.060674
  H       3.058686      3.712388     -0.133369
5
Coordinates from ORCA-job calc E  -6.558605940212
  C       4.082430      3.477865     -0.446559
  H       4.782924      3.180429      0.523362
  H       4.966585      3.672200      1.104587
  H       4.567057      4.247254     -1.057941
  H       3.060104      3.716252     -0.132449
5
Coordinates from ORCA-job calc E  -6.558619582249
  C       4.079689      3.473790     -0.453359
  H       4.786970      3.179793      0.529585
  H       4.967186      3.671909      1.105399
  H       4.565085      4.249395     -1.057431
  H       3.060170      3.719112     -0.133193
5
Coordinates from ORCA-job calc E  -6.558625024633
  C       4.077572      3.471736     -0.457985
  H       4.790131      3.179067      0.534314
  H       4.968467      3.671384      1.107183
  H       4.563307      4.250831     -1.057997
  H       3.059623      3.720982     -0.134516
5
Coordinates from ORCA-job calc E  -6.558625633221
  C       4.076710      3.471116     -0.459743
  H       4.791376      3.178812      0.536195
  H       4.969027      3.671105      1.107934
  H       4.562632      4.251336     -1.058308
  H       3.059355      3.721631     -0.135078
5
Coordinates from ORCA-job calc E  -6.558625669242
  C       4.076465      3.470962     -0.460230
  H       4.791677      3.178781      0.536667
  H       4.969126      3.671040      1.108057
  H       4.562531      4.251453     -1.058348
  H       3.059301      3.721764     -0.135146
5
Coordinates from ORCA-job calc E  -6.558207837474
  C       4.075676      3.471398     -0.461265
  H       4.790388      3.183393      0.537215
  H       4.974344      3.666862      1.114157
  H       4.560961      4.251018     -1.061154
  H       3.057731      3.721329     -0.137952
5
Coordinates from ORCA-job calc E  -6.558213345740
  C       4.075338      3.470511     -0.462325
  H       4.790847      3.183620      0.538091
  H       4.973905      3.666828      1.113424
  H       4.560905      4.251289     -1.060565
  H       3.058105      3.721752     -0.137626
5
Coordinates from ORCA-job calc E  -6.558243938382
  C       4.071493      3.464266     -0.472171
  H       4.795879      3.183930      0.546456
  H       4.973189      3.666423      1.112037
  H       4.559263      4.253963     -1.058271
  H       3.059276      3.725418     -0.137052
5
Coordinates from ORCA-job calc E  -6.558267772197
  C       4.066474      3.458402     -0.483707
  H       4.802466      3.183394      0.556870
  H       4.974540      3.665529      1.113729
  H       4.556262      4.257067     -1.057611
  H       3.059357      3.729608     -0.138282
5
Coordinates from ORCA-job calc E  -6.558290545287
  C       4.060210      3.453201     -0.496888
  H       4.810773      3.182097      0.569649
  H       4.978072      3.663901      1.118545
  H       4.551843      4.260554     -1.058814
  H       3.058202      3.734246     -0.141492
5
Coordinates from ORCA-job calc E  -6.558305129900
  C       4.054016      3.449733     -0.508959
  H       4.818985      3.180606      0.582164
  H       4.982635      3.661804      1.124765
  H       4.547256      4.263625     -1.061345
  H       3.056208      3.738232     -0.145624
5
Coordinates from ORCA-job calc E  -6.558310313858
  C       4.048979      3.447493     -0.518443
  H       4.825404      3.179594      0.592035
  H       4.986337      3.659984      1.129743
  H       4.543862      4.265860     -1.063501
  H       3.054519      3.741069     -0.148834
5
Coordinates from ORCA-job calc E  -6.558311419457
  C       4.046390      3.446828     -0.523039
  H       4.828457      3.179116      0.596732
  H       4.988269      3.659072      1.132364
  H       4.542483      4.266824     -1.064749
  H       3.053501      3.742161     -0.150308
5
Coordinates from ORCA-job calc E  -6.558311583723
  C       4.045579      3.446784     -0.524385
  H       4.829268      3.179036      0.598007
  H       4.988786      3.658818      1.133058
  H       4.542299      4.267038     -1.065107
  H       3.053169      3.742323     -0.150574
5
Coordinates from ORCA-job calc E  -6.558311636055
  C       4.045332      3.446869     -0.524738
  H       4.829403      3.179070      0.598247
  H       4.988859      3.658772      1.133151
  H       4.542429      4.267042     -1.065165
  H       3.053077      3.742248     -0.150495
5
Coordinates from ORCA-job calc E  -6.558109517297
  C       4.044598      3.447167     -0.525762
  H       4.828084      3.183426      0.598599
  H       4.993965      3.654712      1.139135
  H       4.540903      4.266745     -1.067821
  H       3.051550      3.741951     -0.153151
5
Coordinates from ORCA-job calc E  -6.558111509359
  C       4.044304      3.446742     -0.526485
  H       4.828399      3.183609      0.599213
  H       4.993802      3.654611      1.138817
  H       4.540850      4.266872     -1.067533
  H       3.051745      3.742166     -0.153012
5
Coordinates from ORCA-job calc E  -6.558120135716
  C       4.041785      3.444584     -0.531828
  H       4.831173      3.183774      0.603806
  H       4.994426      3.654007      1.139511
  H       4.539830      4.267965     -1.067155
  H       3.051886      3.743670     -0.153333
5
Coordinates from ORCA-job calc E  -6.558129626606
  C       4.037159      3.441829     -0.540940
  H       4.836412      3.183348      0.612075
  H       4.996897      3.652790      1.142856
  H       4.537454      4.269869     -1.067899
  H       3.051177      3.746165     -0.155091
5
Coordinates from ORCA-job calc E  -6.558136464046
  C       4.033016      3.440480     -0.548456
  H       4.841276      3.182437      0.619467
  H       5.000174      3.651500      1.147452
  H       4.534949      4.271464     -1.069822
  H       3.049685      3.748119     -0.157640
5
Coordinates from ORCA-job calc E  -6.558140055171
  C       4.030691      3.440757     -0.552080
  H       4.844219      3.181484      0.623721
  H       5.002926      3.650535      1.151363
  H       4.533234      4.272273     -1.072068
  H       3.048030      3.748950     -0.159937
5
Coordinates from ORCA-job calc E  -6.558140308021
  C       4.030392      3.441188     -0.552318
  H       4.844676      3.181283      0.624357
  H       5.003536      3.650271      1.152194
  H       4.532947      4.272325     -1.072738
  H       3.047549      3.748932     -0.160495
5
Coordinates from ORCA-job calc E  -6.557989135536
  C       4.029685      3.441444     -0.553322
  H       4.843351      3.185604      0.624680
  H       5.008566      3.646209      1.158052
  H       4.531448      4.272068     -1.075326
  H       3.046050      3.748675     -0.163084
5
Coordinates from ORCA-job calc E  -6.557990293635
  C       4.029418      3.441232     -0.553880
  H       4.843659      3.185746      0.625259
  H       5.008531      3.646056      1.157910
  H       4.531369      4.272153     -1.075221
  H       3.046124      3.748814     -0.163069
5
Coordinates from ORCA-job calc E  -6.557994164327
  C       4.027578      3.440335     -0.557392
  H       4.845673      3.185782      0.628550
  H       5.009380      3.645446      1.158956
  H       4.530582      4.272791     -1.075468
  H       3.045888      3.749647     -0.163646
5
Coordinates from ORCA-job calc E  -6.557997537258
  C       4.024708      3.439325     -0.562645
  H       4.848801      3.185381      0.633408
  H       5.011303      3.644642      1.161633
  H       4.529177      4.273787     -1.076419
  H       3.045111      3.750865     -0.164978
5
Coordinates from ORCA-job calc E  -6.557998864403
  C       4.022999      3.439065     -0.565576
  H       4.850732      3.184867      0.636258
  H       5.012879      3.644161      1.163920
  H       4.528184      4.274381     -1.077462
  H       3.044306      3.751526     -0.166141
5
Coordinates from ORCA-job calc E  -6.557999109658
  C       4.022615      3.439252     -0.566092
  H       4.851255      3.184600      0.636961
  H       5.013515      3.643992      1.164851
  H       4.527831      4.274518     -1.078038
  H       3.043885      3.751638     -0.166681
5
Coordinates from ORCA-job calc E  -6.557999113002
  C       4.022597      3.439301     -0.566092
  H       4.851282      3.184579      0.636994
  H       5.013567      3.643974      1.164925
  H       4.527805      4.274514     -1.078094
  H       3.043848      3.751631     -0.166733
5
Coordinates from ORCA-job calc E  -6.557866606962
  C       4.021914      3.439540     -0.567067
  H       4.849958      3.188918      0.637329
  H       5.018533      3.639883      1.170662
  H       4.526326      4.274271     -1.080642
  H       3.042368      3.751388     -0.169281
5
Coordinates from ORCA-job calc E  -6.557867458729
  C       4.021687      3.439321     -0.567563
  H       4.850227      3.189040      0.637828
  H       5.018494      3.639759      1.170535
  H       4.526246      4.274353     -1.080535
  H       3.042447      3.751527     -0.169266
5
Coordinates from ORCA-job calc E  -6.557869762768
  C       4.020310      3.438560     -0.570242
  H       4.851749      3.189021      0.640273
  H       5.019162      3.639345      1.171412
  H       4.525583      4.274858     -1.080704
  H       3.042297      3.752216     -0.169738
5
Coordinates from ORCA-job calc E  -6.557871449642
  C       4.018396      3.437895     -0.573738
  H       4.853840      3.188686      0.643470
  H       5.020534      3.638844      1.173372
  H       4.524574      4.275524     -1.081394
  H       3.041756      3.753051     -0.170711
5
Coordinates from ORCA-job calc E  -6.557871997609
  C       4.017359      3.437853     -0.575448
  H       4.855006      3.188349      0.645179
  H       5.021562      3.638537      1.174861
  H       4.523971      4.275859     -1.082118
  H       3.041202      3.753403     -0.171474
5
Coordinates from ORCA-job calc E  -6.557872087241
  C       4.017121      3.438061     -0.575714
  H       4.855301      3.188212      0.645590
  H       5.021947      3.638412      1.175404
  H       4.523812      4.275908     -1.082496
  H       3.040919      3.753407     -0.171784
5
Coordinates from ORCA-job calc E  -6.557750394375
  C       4.016461      3.438291     -0.576658
  H       4.853980      3.192583      0.645947
  H       5.026853      3.634285      1.181023
  H       4.522350      4.275671     -1.085012
  H       3.039456      3.753171     -0.174300
5
Coordinates from ORCA-job calc E  -6.557751078356
  C       4.016240      3.438127     -0.577111
  H       4.854213      3.192704      0.646392
  H       5.026811      3.634172      1.180897
  H       4.522309      4.275729     -1.084914
  H       3.039526      3.753268     -0.174265
5
Coordinates from ORCA-job calc E  -6.557752665845
  C       4.015069      3.437631     -0.579305
  H       4.855410      3.192705      0.648328
  H       5.027364      3.633849      1.181632
  H       4.521881      4.276088     -1.085073
  H       3.039376      3.753726     -0.174582
5
Coordinates from ORCA-job calc E  -6.557753754492
  C       4.013521      3.437219     -0.582062
  H       4.857008      3.192444      0.650772
  H       5.028462      3.633480      1.183215
  H       4.521193      4.276569     -1.085641
  H       3.038916      3.754288     -0.175285
5
Coordinates from ORCA-job calc E  -6.557754038772
  C       4.012803      3.437209     -0.583235
  H       4.857814      3.192192      0.651944
  H       5.029205      3.633273      1.184299
  H       4.520771      4.276801     -1.086174
  H       3.038507      3.754525     -0.175834
5
Coordinates from ORCA-job calc E  -6.557754068627
  C       4.012693      3.437325     -0.583346
  H       4.857991      3.192096      0.652182
  H       5.029446      3.633195      1.184640
  H       4.520638      4.276837     -1.086418
  H       3.038332      3.754547     -0.176057
