5
 energy: -4.175218372003 gnorm: 0.000068506372 xtb: 6.5.1 (579679a)
C            4.29153210814905        3.65872443344174       -0.00166760400869
H            4.65268304928153        2.63856936321796       -0.00089371551462
H            4.65361759397918        4.17042898911509        0.88049049219652
H            4.65190154779630        4.16751242863961       -0.88632027582638
H            3.20936570079394        3.65876478558561       -0.00060889684683
