  9
        -11.39338373
 C         -1.2722319491       -0.2490585765        0.0151223641
 H         -1.3269320121       -0.9482118888       -0.8199644097
 H         -2.1596540531        0.3854665965       -0.0229905445
 H         -1.3208644457       -0.8376620369        0.9317097573
 C          0.0086973940        0.5587711993       -0.0342988959
 H          0.0720777974        1.1567848861       -0.9538047619
 H          0.0540342626        1.2742684803        0.7971535596
 O          1.1701974192       -0.2386635234        0.0589076321
 H          1.1629903536       -0.9329033407       -0.6386790992
  9
        -11.39135359
 C         -1.2761968206       -0.2408579555       -0.0017851420
 H         -1.3190862968       -0.9609609480       -0.8196625699
 H         -2.1581788158        0.3980028252       -0.0759999121
 H         -1.3515846302       -0.8025291518        0.9299646520
 C          0.0105473668        0.5597947619       -0.0504524680
 H          0.0828928108        1.1365679746       -0.9824304775
 H          0.0508028849        1.2945275020        0.7650432075
 O          1.1855087241       -0.2318446169        0.0424777374
 H          0.9589573112       -1.1860320722        0.1313018097
  9
        -11.39031967
 C         -1.2816699061       -0.2792267710        0.0017486313
 H         -1.3043703013       -1.0023472153       -0.8140022421
 H         -2.1780443229        0.3397382421       -0.0701504799
 H         -1.3359040936       -0.8453587228        0.9320317454
 C         -0.0097951191        0.5421079392       -0.0490567372
 H          0.0433673147        1.1146498362       -0.9853708115
 H          0.0113697134        1.2730912465        0.7710019145
 O          1.1457351739       -0.2700312785        0.0453670065
 H          1.9663905763        0.2739846507        0.0100981447
