5
 energy: -4.175218216500 gnorm: 0.000066472688 xtb: 6.5.1 (579679a)
C            4.10463472393588        3.41114133734102       -0.44866618539929
H            4.71798241071582        3.17507381273847        0.41400070132050
H            5.00719291175084        3.82323239945014        1.25690440332159
H            4.53926414263932        4.19795384501232       -1.06085076815657
H            3.09002581095815        3.68659860545805       -0.17038815108623
