4
 energy: -3.019359422294 gnorm: 0.000471439977 xtb: 6.5.1 (579679a)
C           -2.99709193024194        1.91537608685970        0.00000000702363
H           -2.47697633378675        2.09906923571787        0.95520495511144
H           -4.03635538067587        1.54768544626775       -0.00000001492778
H           -2.47697635529544        2.09906923115468       -0.95520494720728
