5
Coordinates from ORCA-job calc E  -6.728545525246
  C       4.291800      3.658800      0.000000
  H       4.648500      2.650000      0.000000
  H       4.648500      4.163200      0.870700
  H       4.648500      4.163200     -0.879700
  H       3.221800      3.658800      0.000000
5
Coordinates from ORCA-job calc E  -6.733567368802
  C       4.291944      3.658816     -0.000759
  H       4.663702      2.607236     -0.001267
  H       4.664392      4.186162      0.907777
  H       4.662346      4.182755     -0.913780
  H       3.176716      3.659031     -0.000972
5
Coordinates from ORCA-job calc E  -6.733604678583
  C       4.292015      3.658781     -0.001050
  H       4.662495      2.610173     -0.001376
  H       4.663277      4.184890      0.905054
  H       4.661302      4.181206     -0.910765
  H       3.180011      3.658950     -0.000863
5
Coordinates from ORCA-job calc E  -6.733605145616
  C       4.292060      3.658746     -0.001225
  H       4.662256      2.610412     -0.001352
  H       4.663067      4.184810      0.904679
  H       4.661336      4.181179     -0.910432
  H       3.180381      3.658852     -0.000670
