  9
        -11.39433938
 C         -1.2749882667        0.2515100034        0.0157599561
 H         -2.1344854986       -0.4128368611        0.0068536685
 H         -1.3401579726        0.9160522045       -0.8449106626
 H         -1.3032015699        0.8526619770        0.9214855718
 C          0.0146021711       -0.5611602071       -0.0327521838
 H          0.0683772816       -1.2378748921        0.8230107573
 H          0.0400658490       -1.1641858826       -0.9530826622
 O          1.1685969674        0.2415134791        0.0563085921
 H          1.1389396371        0.9024567338       -0.6447050618
  9
        -11.39225785
 C         -1.2714434007        0.2437929475       -0.0003837587
 H         -2.1299726884       -0.4185645674       -0.0720600918
 H         -1.3095659124        0.9488773926       -0.8296206631
 H         -1.3392557424        0.7963566142        0.9357225602
 C          0.0158971460       -0.5645720473       -0.0485612458
 H          0.0388742185       -1.2823472939        0.7815212657
 H          0.0686672967       -1.1294219582       -0.9882467135
 O          1.1790864656        0.2361745303        0.0404884938
 H          0.9166046162        1.1587450041        0.1132400883
  9
        -11.39186742
 C         -1.2591089701        0.2891382675        0.0037127125
 H         -1.2846297509        0.8454267269        0.9365133593
 H         -2.1430532840       -0.3385790333       -0.0658524655
 H         -1.2546894527        0.9978046886       -0.8197154847
 C         -0.0038588947       -0.5674437145       -0.0491837090
 H         -0.0074608498       -1.2870981442        0.7829964886
 H          0.0225975373       -1.1334458132       -0.9922590199
 O          1.1209794234        0.2822252727        0.0434521949
 H          1.9234207773       -0.2476249485        0.0104285341
  9
        -11.38860679
 C         -1.2642042265        0.2908823640        0.0037758443
 H         -1.8544908198        0.1866620109       -0.9014911358
 H         -0.9578380400        1.3290287098        0.0991528833
 H         -1.8846543063        0.0339924840        0.8569079231
 C         -0.0016203826       -0.5721826737       -0.0495576448
 H          0.0088841818       -1.2933311408        0.7799686918
 H          0.0388790833       -1.1402586626       -0.9896242552
 O          1.1217523534        0.2822137705        0.0434627660
 H          1.9271788025       -0.2437379900        0.0107333063
  9
        -11.38755410
 C         -1.2887885036        0.2412882594       -0.0010137564
 H         -1.8700553693        0.0967857388       -0.9076400359
 H         -1.0861737135        1.3075045128        0.0960073139
 H         -1.9008704853       -0.0569473893        0.8458292621
 C          0.0189776497       -0.5571039995       -0.0479815382
 H          0.0522992179       -1.2774764525        0.7786959569
 H          0.0824124879       -1.1244059662       -0.9847305650
 O          1.1909552616        0.2305595715        0.0400843021
 H          0.9493236235        1.1581689310        0.1194099519
