5
 energy: -4.175141608810 gnorm: 0.000194386962 xtb: 6.5.1 (579679a)
C            4.19269018225748        3.93921220153601       -0.00210175190409
H            4.85344503535491        2.07017398916881       -0.00010239959425
H            4.63712183138954        4.27242729343730        0.91273240729457
H            4.63516759229954        4.26979574153254       -0.91883469557847
H            3.14067535869854        3.74239077432534       -0.00069356021776
