5
Coordinates from ORCA-job calc E  -6.728545525246
  C       4.291800      3.658800      0.000000
  H       4.648500      2.650000      0.000000
  H       4.648500      4.163200      0.870700
  H       4.648500      4.163200     -0.879700
  H       3.221800      3.658800      0.000000
5
Coordinates from ORCA-job calc E  -6.731914552204
  C       4.289711      3.666216     -0.013775
  H       4.670805      2.641122      0.016331
  H       4.671657      4.153986      0.887614
  H       4.653019      4.169743     -0.891268
  H       3.173908      3.662933     -0.007902
5
Coordinates from ORCA-job calc E  -6.732092089771
  C       4.287937      3.669051     -0.019150
  H       4.673595      2.637183      0.023114
  H       4.674478      4.150211      0.894112
  H       4.649670      4.173272     -0.896896
  H       3.173419      3.664284     -0.010180
5
Coordinates from ORCA-job calc E  -6.732103654190
  C       4.287830      3.669798     -0.020706
  H       4.673358      2.636068      0.025009
  H       4.674258      4.149196      0.895834
  H       4.648285      4.174487     -0.898708
  H       3.175369      3.664451     -0.010430
5
Coordinates from ORCA-job calc E  -6.732104147263
  C       4.288107      3.669864     -0.020914
  H       4.673014      2.635946      0.025203
  H       4.673922      4.149114      0.895958
  H       4.648129      4.174722     -0.898997
  H       3.175928      3.664355     -0.010251
