5
 energy: -4.175218372003 gnorm: 0.000068506372 xtb: 6.5.1 (579679a)
C            4.54713959276169        3.65279428198192        0.00836913735452
H            4.50820696419041        2.58125317041423       -0.02097327662091
H            4.50919786759893        4.21672281309909        0.92002812961412
H            4.51340513711244        4.19033704135747       -0.92584991039306
H            3.38115043833654        3.65289269314728        0.00942592004534
