5
Coordinates from ORCA-job calc E -40.168129918778
  C       4.291800      3.658800      0.000000
  H       4.648500      2.650000      0.000000
  H       4.648500      4.163200      0.870700
  H       4.648500      4.163200     -0.879700
  H       3.221800      3.658800      0.000000
5
Coordinates from ORCA-job calc E -40.169176307234
  C       4.291878      3.658897     -0.001270
  H       4.655403      2.630937     -0.001095
  H       4.656327      4.174279      0.887670
  H       4.653956      4.170926     -0.893210
  H       3.201535      3.658960     -0.001095
5
Coordinates from ORCA-job calc E -40.169177476841
  C       4.291851      3.658853     -0.001505
  H       4.655144      2.631414     -0.000890
  H       4.656079      4.173933      0.887041
  H       4.653948      4.170921     -0.892756
  H       3.202077      3.658879     -0.000890
5
Coordinates from ORCA-job calc E -40.169177560324
  C       4.291834      3.658823     -0.001669
  H       4.655082      2.631435     -0.000756
  H       4.656021      4.173855      0.886880
  H       4.654043      4.171058     -0.892699
  H       3.202121      3.658829     -0.000756
