%chk=CH4.chk
%mem=15000MB
%nproc=8
%schk=test.chk
#p opt freq(NoRaman) M062X/Def2TZVP

Unnecessary header

0 1
C          4.29180        3.65880        0.00000
H          4.64850        2.65000        0.00000
H          4.64850        4.16320        0.87370
H          4.64850        4.16320       -0.87370
H          3.22180        3.65880        0.00000

