4
Coordinates from ORCA-job calc E  -9.128116642368
  N       1.087641     -0.339946     -0.009725
  H       1.998268      0.055028      0.006512
  H       0.594540     -0.485602      0.839492
  H       0.669981     -0.589301     -0.875119
4
Coordinates from ORCA-job calc E  -9.128811337886
  N       1.087645     -0.340129     -0.009725
  H       1.982806      0.048388      0.006288
  H       0.602942     -0.483041      0.825233
  H       0.677037     -0.585037     -0.860636
4
Coordinates from ORCA-job calc E  -9.128812345956
  N       1.087587     -0.339954     -0.009713
  H       1.983462      0.048600      0.006226
  H       0.602565     -0.483228      0.825770
  H       0.676816     -0.585238     -0.861123
4
Coordinates from ORCA-job calc E  -9.128812349444
  N       1.087596     -0.339968     -0.009708
  H       1.983438      0.048595      0.006222
  H       0.602572     -0.483221      0.825748
  H       0.676824     -0.585227     -0.861102
