4
Coordinates from ORCA-job calc E -56.139540643102
  N       1.087641     -0.339946     -0.009725
  H       1.998268      0.055028      0.006512
  H       0.594540     -0.485602      0.839492
  H       0.669981     -0.589301     -0.875119
4
Coordinates from ORCA-job calc E -56.139540860992
  N       1.087607     -0.339955     -0.009710
  H       1.997996      0.054907      0.006484
  H       0.594687     -0.485555      0.839299
  H       0.670140     -0.589217     -0.874912
