23
 energy: -34.175143565185 gnorm: 0.000134349812 xtb: 6.5.1 (579679a)
C           -3.30650272298848       -1.91929199371847       -0.32186703873055
C           -1.94561880094899       -1.88804517359805       -0.58100615617936
C           -1.24281674154317       -0.69708703379179       -0.49026282444289
C           -1.89315795050465        0.47612355448911       -0.13902510377813
C           -3.25098675139906        0.41099329821846        0.10438770429681
C           -3.98008216269158       -0.75949699215202        0.03056655838871
H           -3.85345562544835       -2.84706194311826       -0.38838962926246
H           -1.42942604665594       -2.79678496070125       -0.85032108312024
H           -0.18228332042788       -0.67294205317967       -0.68823389357548
H           -1.34518195973467        1.40127406387605       -0.06032983666098
H           -5.03731151894691       -0.78483484173516        0.24071207952329
I           -4.29672445748658        2.24979194080180        0.60058919662571
C           -4.59464398258488        2.80176190033244       -1.47964549444280
C           -3.66758505655832        3.63239657629708       -2.07766808328071
C           -5.69163180532292        2.28688658143182       -2.14205848885917
C           -3.84873853020285        3.94488914088255       -3.41656114600673
H           -2.82860631212247        4.03357665262003       -1.53202338032342
C           -5.84962361534862        2.61316269911018       -3.48050141667094
H           -6.40916012320328        1.65308107253724       -1.64618227518494
C           -4.93309558143820        3.43720973344750       -4.11416278356680
H           -3.13719882893003        4.59012085664090       -3.90821872609889
H           -6.69657224606934        2.22124129417001       -4.02222541219604
H           -5.06729585943980        3.68913562713937       -5.15497276645446
