10
 energy: -16.103595149581 gnorm: 0.000361734915 xtb: 6.5.1 (579679a)
C           -1.56252751978245        0.21264313582195       -0.13059916310778
C           -0.37154723000372       -0.05708938281054       -0.62646841913341
Cl           2.46231411854688       -0.17361683623569        0.97472204601564
H            0.94117961596584        0.33059357385600        2.31259890444744
H           -2.20527836239447       -0.55563625747763        0.27329463676293
H           -1.95952470782611        1.21666735625196       -0.09988346111880
H            0.03890883394949       -1.05141934697570       -0.62605714339233
H            0.28266100928991        0.71181552363078       -0.99822269206916
O            0.09104612049299        0.54868920560052        2.75406131759708
H           -0.53695187823682        0.49330302833450        2.02946397399252
