5
Coordinates from ORCA-job calc E -40.448476043879
  C       4.291800      3.658800      0.000000
  H       4.648500      2.650000      0.000000
  H       4.648500      4.163200      0.870700
  H       4.648500      4.163200     -0.879700
  H       3.221800      3.658800      0.000000
5
Coordinates from ORCA-job calc E -40.450279169930
  C       4.291947      3.658946     -0.001181
  H       4.657211      2.625627     -0.001053
  H       4.658078      4.176851      0.892296
  H       4.655784      4.173615     -0.898003
  H       3.196079      3.658962     -0.001058
5
Coordinates from ORCA-job calc E -40.450280166288
  C       4.292005      3.658876     -0.001444
  H       4.657259      2.625139     -0.000920
  H       4.658208      4.177092      0.892599
  H       4.656031      4.174013     -0.898314
  H       3.195597      3.658879     -0.000921
