5
Coordinates from ORCA-job calc E  -6.668461877245
  C       4.498518      3.719024     -0.104899
  H       4.553473      2.559159      0.159059
  H       4.553253      4.071415      1.028968
  H       4.425338      4.255280     -1.038882
  H       3.428518      3.689121     -0.053246
5
Coordinates from ORCA-job calc E  -6.685964672888
  C       4.518576      3.695132     -0.064204
  H       4.555323      2.590911      0.114729
  H       4.555552      4.094051      0.980845
  H       4.461527      4.239491     -1.012170
  H       3.368121      3.674414     -0.028201
5
Coordinates from ORCA-job calc E  -6.691460027756
  C       4.528352      3.675211     -0.030020
  H       4.554803      2.576826      0.055417
  H       4.554912      4.152459      0.963072
  H       4.481518      4.223101     -0.983408
  H       3.339516      3.666403     -0.014062
5
Coordinates from ORCA-job calc E  -6.692794154314
  C       4.530246      3.664252     -0.011145
  H       4.549187      2.560721      0.014932
  H       4.549345      4.195627      0.956305
  H       4.493617      4.214607     -0.968172
  H       3.336704      3.658793     -0.000920
5
Coordinates from ORCA-job calc E  -6.693033889033
  C       4.528682      3.660710     -0.005118
  H       4.542772      2.556956     -0.001111
  H       4.543064      4.211491      0.951434
  H       4.500286      4.211949     -0.963316
  H       3.344296      3.652893      0.009111
5
Coordinates from ORCA-job calc E  -6.693069081231
  C       4.527522      3.660724     -0.005154
  H       4.539520      2.554882     -0.005060
  H       4.539867      4.215979      0.951112
  H       4.503123      4.212333     -0.963802
  H       3.349069      3.650081      0.013904
5
Coordinates from ORCA-job calc E  -6.693070989505
  C       4.527329      3.661057     -0.005763
  H       4.538904      2.555412     -0.004816
  H       4.539285      4.215527      0.950790
  H       4.503780      4.212531     -0.964115
  H       3.349802      3.649473      0.014905
5
Coordinates from ORCA-job calc E  -6.693071213556
  C       4.527350      3.661233     -0.006076
  H       4.538789      2.555463     -0.004650
  H       4.539179      4.215365      0.950796
  H       4.504084      4.212672     -0.964317
  H       3.349698      3.649268      0.015246
5
Coordinates from ORCA-job calc E  -6.690875824261
  C       4.533783      3.661299     -0.006194
  H       4.534502      2.555419     -0.004570
  H       4.534890      4.215320      0.950875
  H       4.499793      4.212628     -0.964238
  H       3.356131      3.649334      0.015128
5
Coordinates from ORCA-job calc E  -6.690887304267
  C       4.534351      3.660748     -0.005244
  H       4.534810      2.554989     -0.006111
  H       4.535206      4.216874      0.950470
  H       4.500894      4.212447     -0.963911
  H       3.353839      3.648943      0.015797
5
Coordinates from ORCA-job calc E  -6.690893708501
  C       4.534519      3.660000     -0.003956
  H       4.534561      2.554685     -0.008538
  H       4.534967      4.219133      0.949502
  H       4.501948      4.211841     -0.962835
  H       3.353104      3.648341      0.016827
5
Coordinates from ORCA-job calc E  -6.690895572800
  C       4.534409      3.659569     -0.003214
  H       4.534105      2.554299     -0.010209
  H       4.534517      4.220776      0.948987
  H       4.502571      4.211506     -0.962235
  H       3.353499      3.647850      0.017670
5
Coordinates from ORCA-job calc E  -6.690895745487
  C       4.534324      3.659532     -0.003151
  H       4.533901      2.554216     -0.010533
  H       4.534314      4.221099      0.948894
  H       4.502731      4.211468     -0.962166
  H       3.353830      3.647685      0.017955
5
Coordinates from ORCA-job calc E  -6.688686019757
  C       4.540665      3.659571     -0.003222
  H       4.529631      2.554270     -0.010525
  H       4.530043      4.221066      0.948852
  H       4.498589      4.211371     -0.961996
  H       3.360172      3.647721      0.017890
5
Coordinates from ORCA-job calc E  -6.688697264033
  C       4.541157      3.659011     -0.002248
  H       4.529921      2.553788     -0.012117
  H       4.530334      4.222685      0.948469
  H       4.499657      4.211185     -0.961673
  H       3.358032      3.647331      0.018570
5
Coordinates from ORCA-job calc E  -6.688704303436
  C       4.541274      3.658192     -0.000825
  H       4.529674      2.553436     -0.014794
  H       4.530088      4.225176      0.947429
  H       4.500820      4.210525     -0.960527
  H       3.357244      3.646670      0.019717
5
Coordinates from ORCA-job calc E  -6.688706076496
  C       4.541124      3.657784     -0.000117
  H       4.529228      2.553088     -0.016414
  H       4.529642      4.226753      0.946916
  H       4.501444      4.210195     -0.959953
  H       3.357662      3.646180      0.020568
5
Coordinates from ORCA-job calc E  -6.688706247790
  C       4.541033      3.657753     -0.000063
  H       4.529021      2.553019     -0.016734
  H       4.529436      4.227064      0.946814
  H       4.501620      4.210157     -0.959886
  H       3.357990      3.646007      0.020869
5
Coordinates from ORCA-job calc E  -6.686485507235
  C       4.547279      3.657763     -0.000084
  H       4.524770      2.553167     -0.016802
  H       4.525184      4.227051      0.946654
  H       4.497632      4.210009     -0.959628
  H       3.364236      3.646010      0.020860
5
Coordinates from ORCA-job calc E  -6.686497322994
  C       4.547741      3.657182      0.000926
  H       4.525085      2.552672     -0.018455
  H       4.525500      4.228728      0.946251
  H       4.498724      4.209810     -0.959283
  H       3.362050      3.645608      0.021561
5
Coordinates from ORCA-job calc E  -6.686504980689
  C       4.547805      3.656314      0.002435
  H       4.524860      2.552315     -0.021283
  H       4.525275      4.231353      0.945139
  H       4.499969      4.209115     -0.958075
  H       3.361191      3.644904      0.022784
5
Coordinates from ORCA-job calc E  -6.686506885366
  C       4.547615      3.655891      0.003169
  H       4.524407      2.551973     -0.022965
  H       4.524823      4.232980      0.944590
  H       4.500642      4.208775     -0.957485
  H       3.361614      3.644382      0.023691
5
Coordinates from ORCA-job calc E  -6.686507085451
  C       4.547513      3.655857      0.003227
  H       4.524185      2.551905     -0.023310
  H       4.524602      4.233312      0.944475
  H       4.500841      4.208735     -0.957414
  H       3.361958      3.644190      0.024023
5
Coordinates from ORCA-job calc E  -6.684279752739
  C       4.553656      3.655837      0.003259
  H       4.519956      2.552140     -0.023459
  H       4.520372      4.233324      0.944198
  H       4.497015      4.208539     -0.957072
  H       3.368102      3.644160      0.024074
5
Coordinates from ORCA-job calc E  -6.684292097355
  C       4.554083      3.655236      0.004303
  H       4.520294      2.551634     -0.025171
  H       4.520711      4.235058      0.943775
  H       4.498131      4.208328     -0.956707
  H       3.365881      3.643743      0.024799
5
Coordinates from ORCA-job calc E  -6.684300403303
  C       4.554085      3.654317      0.005899
  H       4.520092      2.551273     -0.028157
  H       4.520510      4.237822      0.942588
  H       4.499465      4.207597     -0.955436
  H       3.364948      3.642990      0.026106
5
Coordinates from ORCA-job calc E  -6.684302442304
  C       4.553853      3.653881      0.006658
  H       4.519633      2.550940     -0.029897
  H       4.520052      4.239495      0.942001
  H       4.500188      4.207249     -0.954831
  H       3.365374      3.642436      0.027069
5
Coordinates from ORCA-job calc E  -6.684302658335
  C       4.553739      3.653846      0.006719
  H       4.519397      2.550874     -0.030267
  H       4.519816      4.239848      0.941872
  H       4.500412      4.207207     -0.954758
  H       3.365735      3.642226      0.027434
5
Coordinates from ORCA-job calc E  -6.682073208309
  C       4.559773      3.653793      0.006808
  H       4.515192      2.551192     -0.030501
  H       4.515610      4.239892      0.941481
  H       4.496755      4.206965     -0.954335
  H       3.371769      3.642159      0.027548
5
Coordinates from ORCA-job calc E  -6.682086062200
  C       4.560162      3.653173      0.007884
  H       4.515554      2.550678     -0.032268
  H       4.515973      4.241678      0.941037
  H       4.497895      4.206743     -0.953951
  H       3.369515      3.641728      0.028298
5
Coordinates from ORCA-job calc E  -6.682095030666
  C       4.560094      3.652204      0.009568
  H       4.515380      2.550315     -0.035413
  H       4.515799      4.244579      0.939771
  H       4.499322      4.205977     -0.952619
  H       3.368505      3.640925      0.029693
5
Coordinates from ORCA-job calc E  -6.682097203961
  C       4.559816      3.651753      0.010351
  H       4.514916      2.549993     -0.037212
  H       4.515336      4.246298      0.939145
  H       4.500098      4.205620     -0.952000
  H       3.368934      3.640336      0.030715
5
Coordinates from ORCA-job calc E  -6.682097444455
  C       4.559689      3.651716      0.010416
  H       4.514665      2.549929     -0.037608
  H       4.515086      4.246673      0.939001
  H       4.500350      4.205576     -0.951923
  H       3.369311      3.640106      0.031114
5
Coordinates from ORCA-job calc E  -6.679870420664
  C       4.565606      3.651629      0.010564
  H       4.510488      2.550325     -0.037933
  H       4.510908      4.246756      0.938497
  H       4.496870      4.205290     -0.951423
  H       3.375228      3.640001      0.031295
5
Coordinates from ORCA-job calc E  -6.679883759955
  C       4.565953      3.650992      0.011671
  H       4.510875      2.549806     -0.039752
  H       4.511296      4.248589      0.938032
  H       4.498033      4.205058     -0.951021
  H       3.372943      3.639555      0.032071
5
Coordinates from ORCA-job calc E  -6.679893409020
  C       4.565807      3.649971      0.013444
  H       4.510731      2.549446     -0.043055
  H       4.511153      4.251626      0.936683
  H       4.499555      4.204256     -0.949629
  H       3.371854      3.638699      0.033557
5
Coordinates from ORCA-job calc E  -6.679895723538
  C       4.565480      3.649506      0.014252
  H       4.510263      2.549136     -0.044916
  H       4.510685      4.253392      0.936017
  H       4.500389      4.203892     -0.948995
  H       3.372284      3.638074      0.034643
5
Coordinates from ORCA-job calc E  -6.679895990926
  C       4.565338      3.649466      0.014321
  H       4.509996      2.549075     -0.045341
  H       4.510419      4.253790      0.935856
  H       4.500670      4.203846     -0.948915
  H       3.372676      3.637823      0.035078
5
Coordinates from ORCA-job calc E  -6.677676023434
  C       4.571131      3.649344      0.014530
  H       4.505850      2.549543     -0.045760
  H       4.506273      4.253919      0.935242
  H       4.497376      4.203517     -0.948342
  H       3.378470      3.637677      0.035330
5
Coordinates from ORCA-job calc E  -6.677689818654
  C       4.571432      3.648690      0.015667
  H       4.506263      2.549024     -0.047628
  H       4.506687      4.255795      0.934752
  H       4.498561      4.203275     -0.947922
  H       3.376156      3.637216      0.036132
5
Coordinates from ORCA-job calc E  -6.677700168461
  C       4.571200      3.647618      0.017529
  H       4.506154      2.548669     -0.051091
  H       4.506578      4.258968      0.933318
  H       4.500183      4.202439     -0.946470
  H       3.374985      3.636305      0.037715
5
Coordinates from ORCA-job calc E  -6.677702632131
  C       4.570819      3.647138      0.018363
  H       4.505682      2.548373     -0.053016
  H       4.506108      4.260781      0.932608
  H       4.501078      4.202066     -0.945822
  H       3.375413      3.635642      0.038866
5
Coordinates from ORCA-job calc E  -6.677702932052
  C       4.570661      3.647096      0.018436
  H       4.505400      2.548315     -0.053470
  H       4.505825      4.261203      0.932430
  H       4.501392      4.202018     -0.945737
  H       3.375821      3.635368      0.039342
5
Coordinates from ORCA-job calc E  -6.675494736679
  C       4.576321      3.646936      0.018711
  H       4.501290      2.548850     -0.053988
  H       4.501715      4.261384      0.931707
  H       4.498291      4.201650     -0.945097
  H       3.381482      3.635180      0.039667
5
Coordinates from ORCA-job calc E  -6.675508965749
  C       4.576573      3.646267      0.019874
  H       4.501729      2.548334     -0.055903
  H       4.502155      4.263298      0.931192
  H       4.499498      4.201398     -0.944660
  H       3.379145      3.634703      0.040496
5
Coordinates from ORCA-job calc E  -6.675520048166
  C       4.576244      3.645142      0.021827
  H       4.501659      2.547989     -0.059529
  H       4.502086      4.266607      0.929668
  H       4.501225      4.200528     -0.943148
  H       3.377886      3.633734      0.042181
5
Coordinates from ORCA-job calc E  -6.675522669757
  C       4.575806      3.644647      0.022688
  H       4.501185      2.547708     -0.061518
  H       4.501612      4.268469      0.928912
  H       4.502185      4.200146     -0.942484
  H       3.378312      3.633030      0.043402
5
Coordinates from ORCA-job calc E  -6.675523003080
  C       4.575630      3.644602      0.022767
  H       4.500886      2.547654     -0.062005
  H       4.501314      4.268918      0.928714
  H       4.502535      4.200095     -0.942395
  H       3.378736      3.632732      0.043919
5
Coordinates from ORCA-job calc E  -6.673331424501
  C       4.581147      3.644404      0.023108
  H       4.496817      2.548252     -0.062626
  H       4.497245      4.269155      0.927886
  H       4.499635      4.199690     -0.941690
  H       3.384255      3.632499      0.044322
5
Coordinates from ORCA-job calc E  -6.673346060039
  C       4.581347      3.643720      0.024296
  H       4.497283      2.547741     -0.064582
  H       4.497711      4.271103      0.927345
  H       4.500862      4.199429     -0.941238
  H       3.381897      3.632006      0.045179
5
Coordinates from ORCA-job calc E  -6.673357911942
  C       4.580910      3.642541      0.026343
  H       4.497257      2.547410     -0.068376
  H       4.497686      4.274550      0.925725
  H       4.502699      4.198523     -0.939664
  H       3.380548      3.630975      0.046971
5
Coordinates from ORCA-job calc E  -6.673360701137
  C       4.580411      3.642030      0.027232
  H       4.496781      2.547146     -0.070433
  H       4.497211      4.276462      0.924920
  H       4.503729      4.198133     -0.938985
  H       3.380969      3.630230      0.048266
5
Coordinates from ORCA-job calc E  -6.673361071464
  C       4.580214      3.641982      0.027315
  H       4.496464      2.547096     -0.070954
  H       4.496895      4.276938      0.924701
  H       4.504118      4.198079     -0.938890
  H       3.381410      3.629906      0.048828
